Version 4.1
SHEET 1 884 680
WIRE 272 -208 224 -208
WIRE 272 -176 272 -208
WIRE 224 -144 224 -208
WIRE 48 16 -80 16
WIRE 96 16 48 16
WIRE 224 16 224 -64
WIRE 224 16 96 16
WIRE 336 16 224 16
WIRE 384 16 336 16
WIRE 592 16 384 16
WIRE 656 16 592 16
WIRE 96 32 96 16
WIRE 336 32 336 16
WIRE 592 64 592 16
WIRE 48 80 48 16
WIRE 96 80 48 80
WIRE 384 80 384 16
WIRE 384 80 336 80
WIRE 192 112 144 112
WIRE 288 112 192 112
WIRE 656 112 656 16
WIRE 656 112 592 112
WIRE 16 144 -256 144
WIRE 96 144 96 128
WIRE 192 144 192 112
WIRE 192 144 96 144
WIRE 336 144 336 128
WIRE 400 144 336 144
WIRE 496 144 400 144
WIRE 544 144 496 144
WIRE 96 176 96 144
WIRE 336 176 336 144
WIRE -256 192 -256 144
WIRE -80 192 -80 16
WIRE 592 208 592 160
WIRE 672 208 592 208
WIRE 768 208 672 208
WIRE 224 224 96 224
WIRE 336 224 224 224
WIRE 496 224 496 208
WIRE 496 224 448 224
WIRE 448 240 448 224
WIRE 480 240 448 240
WIRE 592 240 592 208
WIRE 592 240 560 240
WIRE 16 256 16 144
WIRE 48 256 16 256
WIRE 400 256 384 256
WIRE 448 256 400 256
WIRE 592 256 592 240
WIRE 448 272 448 256
WIRE -80 304 -80 272
WIRE 16 304 -80 304
WIRE 672 304 592 304
WIRE -80 320 -80 304
WIRE 96 320 96 272
WIRE 224 320 224 224
WIRE 224 320 96 320
WIRE 336 320 336 272
WIRE 336 320 224 320
WIRE -80 368 -160 368
WIRE 304 368 224 368
WIRE 448 368 448 352
WIRE 592 368 592 352
WIRE 672 368 672 304
WIRE 672 368 592 368
WIRE 16 400 16 304
WIRE 16 400 -32 400
WIRE 176 400 16 400
WIRE -256 480 -256 272
WIRE -160 480 -160 368
WIRE -160 480 -256 480
WIRE -80 480 -80 416
WIRE -80 480 -160 480
WIRE 224 480 224 416
WIRE 224 480 -80 480
WIRE 304 480 304 368
WIRE 304 480 224 480
WIRE 448 480 448 448
WIRE 448 480 304 480
WIRE 592 480 592 368
WIRE 592 480 448 480
WIRE 608 480 592 480
WIRE 224 496 224 480
WIRE 16 512 16 400
WIRE 544 512 544 336
WIRE 544 512 16 512
FLAG 272 -176 0
FLAG 224 496 0
FLAG 672 208 Vout2
FLAG 400 144 Vout1
FLAG 400 256 Vin
DATAFLAG 208 320 ""
DATAFLAG 96 144 ""
DATAFLAG 192 112 ""
DATAFLAG 336 144 ""
DATAFLAG 640 208 ""
SYMBOL tsmc_180_nm\\cmosp 144 32 M0
SYMATTR InstName M3
SYMATTR Value2 l=900n w=3200n
SYMBOL tsmc_180_nm\\cmosp 288 32 R0
SYMATTR InstName M4
SYMATTR Value2 l=900n w=3200n
SYMBOL tsmc_180_nm\\cmosn 48 176 R0
SYMATTR InstName M1
SYMATTR Value2 l=900n w=27000n
SYMBOL tsmc_180_nm\\cmosn 384 176 M0
SYMATTR InstName M2
SYMATTR Value2 l=900n w=27000n
SYMBOL tsmc_180_nm\\cmosn 176 320 R0
SYMATTR InstName M0
SYMATTR Value2 l=900n w=35000n
SYMBOL tsmc_180_nm\\cmosn 544 256 R0
SYMATTR InstName M6
SYMATTR Value2 l=900n w=19000n
SYMBOL tsmc_180_nm\\cmosp 544 64 R0
SYMATTR InstName M5
SYMATTR Value2 l=900n w=3600n
SYMBOL voltage -256 176 R0
WINDOW 123 0 0 Left 0
WINDOW 39 0 0 Left 0
SYMATTR InstName V1
SYMATTR Value 0.9
SYMBOL voltage 448 256 R0
WINDOW 123 24 124 Left 2
WINDOW 39 0 0 Left 0
SYMATTR Value2 AC 1 0
SYMATTR InstName V2
SYMATTR Value SINE(0 0.0002 1k)
SYMBOL voltage 224 -48 R180
WINDOW 0 24 96 Left 2
WINDOW 3 24 16 Left 2
WINDOW 123 0 0 Left 0
WINDOW 39 0 0 Left 0
SYMATTR InstName V3
SYMATTR Value 1.8
SYMBOL voltage 448 352 R0
WINDOW 123 0 0 Left 0
WINDOW 39 0 0 Left 0
SYMATTR InstName V4
SYMATTR Value 0.9
SYMBOL cmosn -32 320 M0
SYMATTR InstName M7
SYMATTR Value2 l=900n w=3400n
SYMBOL current -80 192 R0
WINDOW 123 0 0 Left 0
WINDOW 39 0 0 Left 0
SYMATTR InstName I1
SYMATTR Value 4.25µA
SYMBOL cap 480 144 R0
SYMATTR InstName C1
SYMATTR Value 3p
SYMBOL cap 752 208 R0
SYMATTR InstName C2
SYMATTR Value 10p
SYMBOL res 576 224 R90
WINDOW 0 0 56 VBottom 2
WINDOW 3 32 56 VTop 2
SYMATTR InstName R3
SYMATTR Value 9.6k
TEXT -544 32 Left 2 !.INCLUDE tsmc018.lib
TEXT -544 520 Left 2 !.tran 10ms
TEXT -544 432 Left 2 ;.op
TEXT -576 -64 Left 2 ;.ac dec 30 100hz 1ghz
